<?xml version="1.0" encoding="UTF-8"?>

<!-- generated on 2020/1/22 11:37:05 by Netedit Version 0.32.0
<?xml version="1.0" encoding="UTF-8"?>

<configuration xmlns:xsi="http://www.w3.org/2001/XMLSchema-instance" xsi:noNamespaceSchemaLocation="http://sumo.dlr.de/xsd/netconvertConfiguration.xsd">

    <input>
        <sumo-net-file value="C:\Users\USER\src\veins-5.0\veins-veins-5.0\src\Tutorial4\straight.net.xml"/>
    </input>

    <output>
        <output-file value="C:\Users\USER\src\veins-5.0\veins-veins-5.0\src\Tutorial4\straight.net.xml"/>
    </output>

    <processing>
        <no-internal-links value="true"/>
        <no-turnarounds value="true"/>
        <offset.disable-normalization value="true"/>
        <lefthand value="false"/>
        <junctions.corner-detail value="0"/>
        <rectangular-lane-cut value="false"/>
        <walkingareas value="false"/>
    </processing>

</configuration>
-->

<net version="0.27" xmlns:xsi="http://www.w3.org/2001/XMLSchema-instance" xsi:noNamespaceSchemaLocation="http://sumo.dlr.de/xsd/net_file.xsd">

    <location netOffset="0.00,0.00" convBoundary="0.00,0.00,1010.00,0.00" origBoundary="-10000000000.00,-10000000000.00,10000000000.00,10000000000.00" projParameter="!"/>

    <edge id="edge1" from="Node1" to="Node2" priority="1">
        <lane id="edge1_0" index="0" speed="13.89" length="1000.00" shape="0.00,-1.65 1000.00,-1.65"/>
    </edge>
    <edge id="edge2" from="Node2" to="Node3" priority="1">
        <lane id="edge2_0" index="0" speed="13.89" length="10.00" shape="1000.00,-1.65 1010.00,-1.65"/>
    </edge>

    <junction id="Node1" type="dead_end" x="0.00" y="0.00" incLanes="" intLanes="" shape="0.00,-0.05 0.00,-3.25"/>
    <junction id="Node2" type="priority" x="1000.00" y="0.00" incLanes="edge1_0" intLanes="" shape="1000.00,-0.05 1000.00,-3.25 1000.00,-0.05">
        <request index="0" response="0" foes="0"/>
    </junction>
    <junction id="Node3" type="dead_end" x="1010.00" y="0.00" incLanes="edge2_0" intLanes="" shape="1010.00,-3.25 1010.00,-0.05"/>

    <connection from="edge1" to="edge2" fromLane="0" toLane="0" dir="s" state="M"/>

</net>
