<routes>
   <vType id="car" type="passenger" length="5" accel="3.5" decel="2.2" sigma="0" tau="0.1" minGap="0.1" maxSpeed="28"/>
   <flow id="carflow" type="car" beg="0" end="0" number="5" from="edge1" to="edge2"/>
</routes>